/*--------------------------------*- C++ -*----------------------------------*\
| =========                 |                                                 |
| \\      /  F ield         | OpenFOAM: The Open Source CFD Toolbox           |
|  \\    /   O peration     | Version:  2.3.0                                 |
|   \\  /    A nd           | Web:      www.OpenFOAM.org                      |
|    \\/     M anipulation  |                                                 |
\*---------------------------------------------------------------------------*/
FoamFile
{
    version     2.0;
    format      ascii;
    class       dictionary;
    object      blockMeshDict;
}

// * * * * * * * * * * * * * * * * * * * * * * * * * * * * * * * * * * * * * //

convertToMeters 1;

vertices
(
    ( 0.5 -0.5 -0.5) // 0 
    ( 0.5  0.5 -0.5) // 1
    (-0.5  0.5 -0.5) // 2
    (-0.5 -0.5 -0.5) // 3
    ( 0.5 -0.5  0.5) // 4
    ( 0.5  0.5  0.5) // 5
    (-0.5  0.5  0.5) // 6
    (-0.5 -0.5  0.5) // 7 
);
blocks
(
    hex (0 1 2 3 4 5 6 7)
    (64 64 64)
    simpleGrading (1 1 1)
);

patches
(
    patch inlet
    (
        (2 6 7 3) // (0 4 5 1)
    )
    patch outlet
    (
        (0 4 5 1) // (2 6 7 3)
    )
    wall walls
    (
        (1 5 6 2)
        (4 0 3 7)
    )
    wall top
    (
        (4 7 6 5)
    )
    wall bottom
    (
        (0 1 2 3)
    )
);

edges
(
);

mergePatchPairs
(
);

// ************************************************************************* //
